results/phase3/sc_cmpo/arpae_go/buses.csv
area,base_kv,bus_id,bus_type,emergency_voltage_high_pu,emergency_voltage_low_pu,normal_voltage_high_pu,normal_voltage_low_pu,owner,source_record,voltage_angle_degrees,voltage_magnitude_pu,zone
1,138.0,1,1,1.1,0.9,1.1,0.9,1,"1,'            ',138.0,1,1,1,1,1.0,0.0,1.1,0.9,1.1,0.9",0.0,1.0,1
1,138.0,2,1,1.1,0.9,1.1,0.9,1,"2,'            ',138.0,1,1,1,1,1.0,0.0,1.1,0.9,1.1,0.9",0.0,1.0,1
1,138.0,3,1,1.1,0.9,1.1,0.9,1,"3,'            ',138.0,1,1,1,1,1.0,0.0,1.1,0.9,1.1,0.9",0.0,1.0,1
1,138.0,4,1,1.1,0.9,1.1,0.9,1,"4,'            ',138.0,1,1,1,1,1.0,0.0,1.1,0.9,1.1,0.9",0.0,1.0,1
1,138.0,5,1,1.1,0.9,1.1,0.9,1,"5,'            ',138.0,1,1,1,1,1.0,0.0,1.1,0.9,1.1,0.9",0.0,1.0,1
1,138.0,6,1,1.1,0.9,1.1,0.9,1,"6,'            ',138.0,1,1,1,1,1.0,0.0,1.1,0.9,1.1,0.9",0.0,1.0,1
1,345.0,7,1,1.1,0.9,1.1,0.9,1,"7,'            ',345.0,1,1,1,1,1.0,0.0,1.1,0.9,1.1,0.9",0.0,1.0,1
1,138.0,8,1,1.1,0.9,1.1,0.9,1,"8,'            ',138.0,1,1,1,1,1.0,0.0,1.1,0.9,1.1,0.9",0.0,1.0,1
1,13.8,9,2,1.1,0.9,1.1,0.9,1,"9,'            ',13.8,2,1,1,1,1.0,0.0,1.1,0.9,1.1,0.9",0.0,1.0,1
1,138.0,10,1,1.1,0.9,1.1,0.9,1,"10,'            ',138.0,1,1,1,1,1.0,0.0,1.1,0.9,1.1,0.9",0.0,1.0,1
1,138.0,11,1,1.1,0.9,1.1,0.9,1,"11,'            ',138.0,1,1,1,1,1.0,0.0,1.1,0.9,1.1,0.9",0.0,1.0,1
1,138.0,12,1,1.1,0.9,1.1,0.9,1,"12,'            ',138.0,1,1,1,1,1.0,0.0,1.1,0.9,1.1,0.9",0.0,1.0,1
1,138.0,13,1,1.1,0.9,1.1,0.9,1,"13,'            ',138.0,1,1,1,1,1.0,0.0,1.1,0.9,1.1,0.9",0.0,1.0,1
1,345.0,14,1,1.1,0.9,1.1,0.9,1,"14,'            ',345.0,1,1,1,1,1.0,0.0,1.1,0.9,1.1,0.9",0.0,1.0,1
1,138.0,15,1,1.1,0.9,1.1,0.9,1,"15,'            ',138.0,1,1,1,1,1.0,0.0,1.1,0.9,1.1,0.9",0.0,1.0,1
1,13.8,16,2,1.1,0.9,1.1,0.9,1,"16,'            ',13.8,2,1,1,1,1.0,0.0,1.1,0.9,1.1,0.9",0.0,1.0,1
1,13.8,17,3,1.1,0.9,1.1,0.9,1,"17,'            ',13.8,3,1,1,1,1.0,0.0,1.1,0.9,1.1,0.9",0.0,1.0,1
1,13.8,18,2,1.1,0.9,1.1,0.9,1,"18,'            ',13.8,2,1,1,1,1.0,0.0,1.1,0.9,1.1,0.9",0.0,1.0,1
1,138.0,19,1,1.1,0.9,1.1,0.9,1,"19,'            ',138.0,1,1,1,1,1.0,0.0,1.1,0.9,1.1,0.9",0.0,1.0,1
1,138.0,20,1,1.1,0.9,1.1,0.9,1,"20,'            ',138.0,1,1,1,1,1.0,0.0,1.1,0.9,1.1,0.9",0.0,1.0,1
1,138.0,21,1,1.1,0.9,1.1,0.9,1,"21,'            ',138.0,1,1,1,1,1.0,0.0,1.1,0.9,1.1,0.9",0.0,1.0,1
1,138.0,22,1,1.1,0.9,1.1,0.9,1,"22,'            ',138.0,1,1,1,1,1.0,0.0,1.1,0.9,1.1,0.9",0.0,1.0,1
1,345.0,23,1,1.1,0.9,1.1,0.9,1,"23,'            ',345.0,1,1,1,1,1.0,0.0,1.1,0.9,1.1,0.9",0.0,1.0,1
1,138.0,24,1,1.1,0.9,1.1,0.9,1,"24,'            ',138.0,1,1,1,1,1.0,0.0,1.1,0.9,1.1,0.9",0.0,1.0,1
1,138.0,25,1,1.1,0.9,1.1,0.9,1,"25,'            ',138.0,1,1,1,1,1.0,0.0,1.1,0.9,1.1,0.9",0.0,1.0,1
1,138.0,26,1,1.1,0.9,1.1,0.9,1,"26,'            ',138.0,1,1,1,1,1.0,0.0,1.1,0.9,1.1,0.9",0.0,1.0,1
1,138.0,27,1,1.1,0.9,1.1,0.9,1,"27,'            ',138.0,1,1,1,1,1.0,0.0,1.1,0.9,1.1,0.9",0.0,1.0,1
1,138.0,28,1,1.1,0.9,1.1,0.9,1,"28,'            ',138.0,1,1,1,1,1.0,0.0,1.1,0.9,1.1,0.9",0.0,1.0,1
1,138.0,29,1,1.1,0.9,1.1,0.9,1,"29,'            ',138.0,1,1,1,1,1.0,0.0,1.1,0.9,1.1,0.9",0.0,1.0,1
1,138.0,30,1,1.1,0.9,1.1,0.9,1,"30,'            ',138.0,1,1,1,1,1.0,0.0,1.1,0.9,1.1,0.9",0.0,1.0,1
1,138.0,31,1,1.1,0.9,1.1,0.9,1,"31,'            ',138.0,1,1,1,1,1.0,0.0,1.1,0.9,1.1,0.9",0.0,1.0,1
1,138.0,32,1,1.1,0.9,1.1,0.9,1,"32,'            ',138.0,1,1,1,1,1.0,0.0,1.1,0.9,1.1,0.9",0.0,1.0,1
1,138.0,33,1,1.1,0.9,1.1,0.9,1,"33,'            ',138.0,1,1,1,1,1.0,0.0,1.1,0.9,1.1,0.9",0.0,1.0,1
1,138.0,34,1,1.1,0.9,1.1,0.9,1,"34,'            ',138.0,1,1,1,1,1.0,0.0,1.1,0.9,1.1,0.9",0.0,1.0,1
1,138.0,35,1,1.1,0.9,1.1,0.9,1,"35,'            ',138.0,1,1,1,1,1.0,0.0,1.1,0.9,1.1,0.9",0.0,1.0,1
1,138.0,36,1,1.1,0.9,1.1,0.9,1,"36,'            ',138.0,1,1,1,1,1.0,0.0,1.1,0.9,1.1,0.9",0.0,1.0,1
1,138.0,37,1,1.1,0.9,1.1,0.9,1,"37,'            ',138.0,1,1,1,1,1.0,0.0,1.1,0.9,1.1,0.9",0.0,1.0,1
1,138.0,38,1,1.1,0.9,1.1,0.9,1,"38,'            ',138.0,1,1,1,1,1.0,0.0,1.1,0.9,1.1,0.9",0.0,1.0,1
1,345.0,39,1,1.1,0.9,1.1,0.9,1,"39,'            ',345.0,1,1,1,1,1.0,0.0,1.1,0.9,1.1,0.9",0.0,1.0,1
1,138.0,40,1,1.1,0.9,1.1,0.9,1,"40,'            ',138.0,1,1,1,1,1.0,0.0,1.1,0.9,1.1,0.9",0.0,1.0,1
1,138.0,41,1,1.1,0.9,1.1,0.9,1,"41,'            ',138.0,1,1,1,1,1.0,0.0,1.1,0.9,1.1,0.9",0.0,1.0,1
1,138.0,42,1,1.1,0.9,1.1,0.9,1,"42,'            ',138.0,1,1,1,1,1.0,0.0,1.1,0.9,1.1,0.9",0.0,1.0,1
1,138.0,43,1,1.1,0.9,1.1,0.9,1,"43,'            ',138.0,1,1,1,1,1.0,0.0,1.1,0.9,1.1,0.9",0.0,1.0,1
1,138.0,44,1,1.1,0.9,1.1,0.9,1,"44,'            ',138.0,1,1,1,1,1.0,0.0,1.1,0.9,1.1,0.9",0.0,1.0,1
1,138.0,45,1,1.1,0.9,1.1,0.9,1,"45,'            ',138.0,1,1,1,1,1.0,0.0,1.1,0.9,1.1,0.9",0.0,1.0,1
1,138.0,46,1,1.1,0.9,1.1,0.9,1,"46,'            ',138.0,1,1,1,1,1.0,0.0,1.1,0.9,1.1,0.9",0.0,1.0,1
1,138.0,47,1,1.1,0.9,1.1,0.9,1,"47,'            ',138.0,1,1,1,1,1.0,0.0,1.1,0.9,1.1,0.9",0.0,1.0,1
1,138.0,48,1,1.1,0.9,1.1,0.9,1,"48,'            ',138.0,1,1,1,1,1.0,0.0,1.1,0.9,1.1,0.9",0.0,1.0,1
1,13.8,49,2,1.1,0.9,1.1,0.9,1,"49,'            ',13.8,2,1,1,1,1.0,0.0,1.1,0.9,1.1,0.9",0.0,1.0,1
1,13.8,50,2,1.1,0.9,1.1,0.9,1,"50,'            ',13.8,2,1,1,1,1.0,0.0,1.1,0.9,1.1,0.9",0.0,1.0,1
1,138.0,51,1,1.1,0.9,1.1,0.9,1,"51,'            ',138.0,1,1,1,1,1.0,0.0,1.1,0.9,1.1,0.9",0.0,1.0,1
1,138.0,52,1,1.1,0.9,1.1,0.9,1,"52,'            ',138.0,1,1,1,1,1.0,0.0,1.1,0.9,1.1,0.9",0.0,1.0,1
1,138.0,53,1,1.1,0.9,1.1,0.9,1,"53,'            ',138.0,1,1,1,1,1.0,0.0,1.1,0.9,1.1,0.9",0.0,1.0,1
1,138.0,54,1,1.1,0.9,1.1,0.9,1,"54,'            ',138.0,1,1,1,1,1.0,0.0,1.1,0.9,1.1,0.9",0.0,1.0,1
1,138.0,55,1,1.1,0.9,1.1,0.9,1,"55,'            ',138.0,1,1,1,1,1.0,0.0,1.1,0.9,1.1,0.9",0.0,1.0,1
1,138.0,56,1,1.1,0.9,1.1,0.9,1,"56,'            ',138.0,1,1,1,1,1.0,0.0,1.1,0.9,1.1,0.9",0.0,1.0,1
1,345.0,57,1,1.1,0.9,1.1,0.9,1,"57,'            ',345.0,1,1,1,1,1.0,0.0,1.1,0.9,1.1,0.9",0.0,1.0,1
1,138.0,58,1,1.1,0.9,1.1,0.9,1,"58,'            ',138.0,1,1,1,1,1.0,0.0,1.1,0.9,1.1,0.9",0.0,1.0,1
1,138.0,59,1,1.1,0.9,1.1,0.9,1,"59,'            ',138.0,1,1,1,1,1.0,0.0,1.1,0.9,1.1,0.9",0.0,1.0,1
1,138.0,60,1,1.1,0.9,1.1,0.9,1,"60,'            ',138.0,1,1,1,1,1.0,0.0,1.1,0.9,1.1,0.9",0.0,1.0,1
1,138.0,61,1,1.1,0.9,1.1,0.9,1,"61,'            ',138.0,1,1,1,1,1.0,0.0,1.1,0.9,1.1,0.9",0.0,1.0,1
1,138.0,62,1,1.1,0.9,1.1,0.9,1,"62,'            ',138.0,1,1,1,1,1.0,0.0,1.1,0.9,1.1,0.9",0.0,1.0,1
1,13.8,63,2,1.1,0.9,1.1,0.9,1,"63,'            ',13.8,2,1,1,1,1.0,0.0,1.1,0.9,1.1,0.9",0.0,1.0,1
1,138.0,64,1,1.1,0.9,1.1,0.9,1,"64,'            ',138.0,1,1,1,1,1.0,0.0,1.1,0.9,1.1,0.9",0.0,1.0,1
1,345.0,65,1,1.1,0.9,1.1,0.9,1,"65,'            ',345.0,1,1,1,1,1.0,0.0,1.1,0.9,1.1,0.9",0.0,1.0,1
1,138.0,66,1,1.1,0.9,1.1,0.9,1,"66,'            ',138.0,1,1,1,1,1.0,0.0,1.1,0.9,1.1,0.9",0.0,1.0,1
1,138.0,67,1,1.1,0.9,1.1,0.9,1,"67,'            ',138.0,1,1,1,1,1.0,0.0,1.1,0.9,1.1,0.9",0.0,1.0,1
1,138.0,68,1,1.1,0.9,1.1,0.9,1,"68,'            ',138.0,1,1,1,1,1.0,0.0,1.1,0.9,1.1,0.9",0.0,1.0,1
1,138.0,69,1,1.1,0.9,1.1,0.9,1,"69,'            ',138.0,1,1,1,1,1.0,0.0,1.1,0.9,1.1,0.9",0.0,1.0,1
1,138.0,70,1,1.1,0.9,1.1,0.9,1,"70,'            ',138.0,1,1,1,1,1.0,0.0,1.1,0.9,1.1,0.9",0.0,1.0,1
1,13.8,71,2,1.1,0.9,1.1,0.9,1,"71,'            ',13.8,2,1,1,1,1.0,0.0,1.1,0.9,1.1,0.9",0.0,1.0,1
1,13.8,72,2,1.1,0.9,1.1,0.9,1,"72,'            ',13.8,2,1,1,1,1.0,0.0,1.1,0.9,1.1,0.9",0.0,1.0,1
1,13.8,73,2,1.1,0.9,1.1,0.9,1,"73,'            ',13.8,2,1,1,1,1.0,0.0,1.1,0.9,1.1,0.9",0.0,1.0,1
1,138.0,74,1,1.1,0.9,1.1,0.9,1,"74,'            ',138.0,1,1,1,1,1.0,0.0,1.1,0.9,1.1,0.9",0.0,1.0,1
1,138.0,75,1,1.1,0.9,1.1,0.9,1,"75,'            ',138.0,1,1,1,1,1.0,0.0,1.1,0.9,1.1,0.9",0.0,1.0,1
1,138.0,76,1,1.1,0.9,1.1,0.9,1,"76,'            ',138.0,1,1,1,1,1.0,0.0,1.1,0.9,1.1,0.9",0.0,1.0,1
1,138.0,77,1,1.1,0.9,1.1,0.9,1,"77,'            ',138.0,1,1,1,1,1.0,0.0,1.1,0.9,1.1,0.9",0.0,1.0,1
1,138.0,78,1,1.1,0.9,1.1,0.9,1,"78,'            ',138.0,1,1,1,1,1.0,0.0,1.1,0.9,1.1,0.9",0.0,1.0,1
1,138.0,79,1,1.1,0.9,1.1,0.9,1,"79,'            ',138.0,1,1,1,1,1.0,0.0,1.1,0.9,1.1,0.9",0.0,1.0,1
1,345.0,80,1,1.1,0.9,1.1,0.9,1,"80,'            ',345.0,1,1,1,1,1.0,0.0,1.1,0.9,1.1,0.9",0.0,1.0,1
1,138.0,81,1,1.1,0.9,1.1,0.9,1,"81,'            ',138.0,1,1,1,1,1.0,0.0,1.1,0.9,1.1,0.9",0.0,1.0,1
1,13.8,82,2,1.1,0.9,1.1,0.9,1,"82,'            ',13.8,2,1,1,1,1.0,0.0,1.1,0.9,1.1,0.9",0.0,1.0,1
1,138.0,83,1,1.1,0.9,1.1,0.9,1,"83,'            ',138.0,1,1,1,1,1.0,0.0,1.1,0.9,1.1,0.9",0.0,1.0,1
1,138.0,84,1,1.1,0.9,1.1,0.9,1,"84,'            ',138.0,1,1,1,1,1.0,0.0,1.1,0.9,1.1,0.9",0.0,1.0,1
1,138.0,85,1,1.1,0.9,1.1,0.9,1,"85,'            ',138.0,1,1,1,1,1.0,0.0,1.1,0.9,1.1,0.9",0.0,1.0,1
1,138.0,86,1,1.1,0.9,1.1,0.9,1,"86,'            ',138.0,1,1,1,1,1.0,0.0,1.1,0.9,1.1,0.9",0.0,1.0,1
1,138.0,87,1,1.1,0.9,1.1,0.9,1,"87,'            ',138.0,1,1,1,1,1.0,0.0,1.1,0.9,1.1,0.9",0.0,1.0,1
1,138.0,88,1,1.1,0.9,1.1,0.9,1,"88,'            ',138.0,1,1,1,1,1.0,0.0,1.1,0.9,1.1,0.9",0.0,1.0,1
1,138.0,89,1,1.1,0.9,1.1,0.9,1,"89,'            ',138.0,1,1,1,1,1.0,0.0,1.1,0.9,1.1,0.9",0.0,1.0,1
1,138.0,90,1,1.1,0.9,1.1,0.9,1,"90,'            ',138.0,1,1,1,1,1.0,0.0,1.1,0.9,1.1,0.9",0.0,1.0,1
1,138.0,91,1,1.1,0.9,1.1,0.9,1,"91,'            ',138.0,1,1,1,1,1.0,0.0,1.1,0.9,1.1,0.9",0.0,1.0,1
1,138.0,92,1,1.1,0.9,1.1,0.9,1,"92,'            ',138.0,1,1,1,1,1.0,0.0,1.1,0.9,1.1,0.9",0.0,1.0,1
1,138.0,93,1,1.1,0.9,1.1,0.9,1,"93,'            ',138.0,1,1,1,1,1.0,0.0,1.1,0.9,1.1,0.9",0.0,1.0,1
1,138.0,94,1,1.1,0.9,1.1,0.9,1,"94,'            ',138.0,1,1,1,1,1.0,0.0,1.1,0.9,1.1,0.9",0.0,1.0,1
1,138.0,95,1,1.1,0.9,1.1,0.9,1,"95,'            ',138.0,1,1,1,1,1.0,0.0,1.1,0.9,1.1,0.9",0.0,1.0,1
1,138.0,96,1,1.1,0.9,1.1,0.9,1,"96,'            ',138.0,1,1,1,1,1.0,0.0,1.1,0.9,1.1,0.9",0.0,1.0,1
1,138.0,97,1,1.1,0.9,1.1,0.9,1,"97,'            ',138.0,1,1,1,1,1.0,0.0,1.1,0.9,1.1,0.9",0.0,1.0,1
1,138.0,98,1,1.1,0.9,1.1,0.9,1,"98,'            ',138.0,1,1,1,1,1.0,0.0,1.1,0.9,1.1,0.9",0.0,1.0,1
1,138.0,99,1,1.1,0.9,1.1,0.9,1,"99,'            ',138.0,1,1,1,1,1.0,0.0,1.1,0.9,1.1,0.9",0.0,1.0,1
1,138.0,100,1,1.1,0.9,1.1,0.9,1,"100,'            ',138.0,1,1,1,1,1.0,0.0,1.1,0.9,1.1,0.9",0.0,1.0,1
1,138.0,101,1,1.1,0.9,1.1,0.9,1,"101,'            ',138.0,1,1,1,1,1.0,0.0,1.1,0.9,1.1,0.9",0.0,1.0,1
1,138.0,102,1,1.1,0.9,1.1,0.9,1,"102,'            ',138.0,1,1,1,1,1.0,0.0,1.1,0.9,1.1,0.9",0.0,1.0,1
1,138.0,103,1,1.1,0.9,1.1,0.9,1,"103,'            ',138.0,1,1,1,1,1.0,0.0,1.1,0.9,1.1,0.9",0.0,1.0,1
1,138.0,104,1,1.1,0.9,1.1,0.9,1,"104,'            ',138.0,1,1,1,1,1.0,0.0,1.1,0.9,1.1,0.9",0.0,1.0,1
1,138.0,105,1,1.1,0.9,1.1,0.9,1,"105,'            ',138.0,1,1,1,1,1.0,0.0,1.1,0.9,1.1,0.9",0.0,1.0,1
1,138.0,106,1,1.1,0.9,1.1,0.9,1,"106,'            ',138.0,1,1,1,1,1.0,0.0,1.1,0.9,1.1,0.9",0.0,1.0,1
1,138.0,107,1,1.1,0.9,1.1,0.9,1,"107,'            ',138.0,1,1,1,1,1.0,0.0,1.1,0.9,1.1,0.9",0.0,1.0,1
1,138.0,108,1,1.1,0.9,1.1,0.9,1,"108,'            ',138.0,1,1,1,1,1.0,0.0,1.1,0.9,1.1,0.9",0.0,1.0,1
1,138.0,109,1,1.1,0.9,1.1,0.9,1,"109,'            ',138.0,1,1,1,1,1.0,0.0,1.1,0.9,1.1,0.9",0.0,1.0,1
1,138.0,110,1,1.1,0.9,1.1,0.9,1,"110,'            ',138.0,1,1,1,1,1.0,0.0,1.1,0.9,1.1,0.9",0.0,1.0,1
1,138.0,111,1,1.1,0.9,1.1,0.9,1,"111,'            ',138.0,1,1,1,1,1.0,0.0,1.1,0.9,1.1,0.9",0.0,1.0,1
1,138.0,112,1,1.1,0.9,1.1,0.9,1,"112,'            ',138.0,1,1,1,1,1.0,0.0,1.1,0.9,1.1,0.9",0.0,1.0,1
1,138.0,113,1,1.1,0.9,1.1,0.9,1,"113,'            ',138.0,1,1,1,1,1.0,0.0,1.1,0.9,1.1,0.9",0.0,1.0,1
1,138.0,114,1,1.1,0.9,1.1,0.9,1,"114,'            ',138.0,1,1,1,1,1.0,0.0,1.1,0.9,1.1,0.9",0.0,1.0,1
1,138.0,115,1,1.1,0.9,1.1,0.9,1,"115,'            ',138.0,1,1,1,1,1.0,0.0,1.1,0.9,1.1,0.9",0.0,1.0,1
1,138.0,116,1,1.1,0.9,1.1,0.9,1,"116,'            ',138.0,1,1,1,1,1.0,0.0,1.1,0.9,1.1,0.9",0.0,1.0,1
1,138.0,117,1,1.1,0.9,1.1,0.9,1,"117,'            ',138.0,1,1,1,1,1.0,0.0,1.1,0.9,1.1,0.9",0.0,1.0,1
1,138.0,118,1,1.1,0.9,1.1,0.9,1,"118,'            ',138.0,1,1,1,1,1.0,0.0,1.1,0.9,1.1,0.9",0.0,1.0,1
1,138.0,119,1,1.1,0.9,1.1,0.9,1,"119,'            ',138.0,1,1,1,1,1.0,0.0,1.1,0.9,1.1,0.9",0.0,1.0,1
1,138.0,120,1,1.1,0.9,1.1,0.9,1,"120,'            ',138.0,1,1,1,1,1.0,0.0,1.1,0.9,1.1,0.9",0.0,1.0,1
1,138.0,121,1,1.1,0.9,1.1,0.9,1,"121,'            ',138.0,1,1,1,1,1.0,0.0,1.1,0.9,1.1,0.9",0.0,1.0,1
1,138.0,122,1,1.1,0.9,1.1,0.9,1,"122,'            ',138.0,1,1,1,1,1.0,0.0,1.1,0.9,1.1,0.9",0.0,1.0,1
1,345.0,123,1,1.1,0.9,1.1,0.9,1,"123,'            ',345.0,1,1,1,1,1.0,0.0,1.1,0.9,1.1,0.9",0.0,1.0,1
1,138.0,124,1,1.1,0.9,1.1,0.9,1,"124,'            ',138.0,1,1,1,1,1.0,0.0,1.1,0.9,1.1,0.9",0.0,1.0,1
1,13.8,125,2,1.1,0.9,1.1,0.9,1,"125,'            ',13.8,2,1,1,1,1.0,0.0,1.1,0.9,1.1,0.9",0.0,1.0,1
1,13.8,126,2,1.1,0.9,1.1,0.9,1,"126,'            ',13.8,2,1,1,1,1.0,0.0,1.1,0.9,1.1,0.9",0.0,1.0,1
1,13.8,127,2,1.1,0.9,1.1,0.9,1,"127,'            ',13.8,2,1,1,1,1.0,0.0,1.1,0.9,1.1,0.9",0.0,1.0,1
1,13.8,128,2,1.1,0.9,1.1,0.9,1,"128,'            ',13.8,2,1,1,1,1.0,0.0,1.1,0.9,1.1,0.9",0.0,1.0,1
1,138.0,129,1,1.1,0.9,1.1,0.9,1,"129,'            ',138.0,1,1,1,1,1.0,0.0,1.1,0.9,1.1,0.9",0.0,1.0,1
1,138.0,130,1,1.1,0.9,1.1,0.9,1,"130,'            ',138.0,1,1,1,1,1.0,0.0,1.1,0.9,1.1,0.9",0.0,1.0,1
1,138.0,131,1,1.1,0.9,1.1,0.9,1,"131,'            ',138.0,1,1,1,1,1.0,0.0,1.1,0.9,1.1,0.9",0.0,1.0,1
1,138.0,132,1,1.1,0.9,1.1,0.9,1,"132,'            ',138.0,1,1,1,1,1.0,0.0,1.1,0.9,1.1,0.9",0.0,1.0,1
1,138.0,133,1,1.1,0.9,1.1,0.9,1,"133,'            ',138.0,1,1,1,1,1.0,0.0,1.1,0.9,1.1,0.9",0.0,1.0,1
1,138.0,134,1,1.1,0.9,1.1,0.9,1,"134,'            ',138.0,1,1,1,1,1.0,0.0,1.1,0.9,1.1,0.9",0.0,1.0,1
1,138.0,135,1,1.1,0.9,1.1,0.9,1,"135,'            ',138.0,1,1,1,1,1.0,0.0,1.1,0.9,1.1,0.9",0.0,1.0,1
1,138.0,136,1,1.1,0.9,1.1,0.9,1,"136,'            ',138.0,1,1,1,1,1.0,0.0,1.1,0.9,1.1,0.9",0.0,1.0,1
1,138.0,137,1,1.1,0.9,1.1,0.9,1,"137,'            ',138.0,1,1,1,1,1.0,0.0,1.1,0.9,1.1,0.9",0.0,1.0,1
1,138.0,138,1,1.1,0.9,1.1,0.9,1,"138,'            ',138.0,1,1,1,1,1.0,0.0,1.1,0.9,1.1,0.9",0.0,1.0,1
1,138.0,139,1,1.1,0.9,1.1,0.9,1,"139,'            ',138.0,1,1,1,1,1.0,0.0,1.1,0.9,1.1,0.9",0.0,1.0,1
1,138.0,140,1,1.1,0.9,1.1,0.9,1,"140,'            ',138.0,1,1,1,1,1.0,0.0,1.1,0.9,1.1,0.9",0.0,1.0,1
1,138.0,141,1,1.1,0.9,1.1,0.9,1,"141,'            ',138.0,1,1,1,1,1.0,0.0,1.1,0.9,1.1,0.9",0.0,1.0,1
1,138.0,142,1,1.1,0.9,1.1,0.9,1,"142,'            ',138.0,1,1,1,1,1.0,0.0,1.1,0.9,1.1,0.9",0.0,1.0,1
1,138.0,143,1,1.1,0.9,1.1,0.9,1,"143,'            ',138.0,1,1,1,1,1.0,0.0,1.1,0.9,1.1,0.9",0.0,1.0,1
1,13.8,144,2,1.1,0.9,1.1,0.9,1,"144,'            ',13.8,2,1,1,1,1.0,0.0,1.1,0.9,1.1,0.9",0.0,1.0,1
1,13.8,145,2,1.1,0.9,1.1,0.9,1,"145,'            ',13.8,2,1,1,1,1.0,0.0,1.1,0.9,1.1,0.9",0.0,1.0,1
1,345.0,146,1,1.1,0.9,1.1,0.9,1,"146,'            ',345.0,1,1,1,1,1.0,0.0,1.1,0.9,1.1,0.9",0.0,1.0,1
1,138.0,147,1,1.1,0.9,1.1,0.9,1,"147,'            ',138.0,1,1,1,1,1.0,0.0,1.1,0.9,1.1,0.9",0.0,1.0,1
1,138.0,148,1,1.1,0.9,1.1,0.9,1,"148,'            ',138.0,1,1,1,1,1.0,0.0,1.1,0.9,1.1,0.9",0.0,1.0,1
1,138.0,149,1,1.1,0.9,1.1,0.9,1,"149,'            ',138.0,1,1,1,1,1.0,0.0,1.1,0.9,1.1,0.9",0.0,1.0,1
1,138.0,150,1,1.1,0.9,1.1,0.9,1,"150,'            ',138.0,1,1,1,1,1.0,0.0,1.1,0.9,1.1,0.9",0.0,1.0,1
1,345.0,151,1,1.1,0.9,1.1,0.9,1,"151,'            ',345.0,1,1,1,1,1.0,0.0,1.1,0.9,1.1,0.9",0.0,1.0,1
1,138.0,152,1,1.1,0.9,1.1,0.9,1,"152,'            ',138.0,1,1,1,1,1.0,0.0,1.1,0.9,1.1,0.9",0.0,1.0,1
1,138.0,153,1,1.1,0.9,1.1,0.9,1,"153,'            ',138.0,1,1,1,1,1.0,0.0,1.1,0.9,1.1,0.9",0.0,1.0,1
1,138.0,154,1,1.1,0.9,1.1,0.9,1,"154,'            ',138.0,1,1,1,1,1.0,0.0,1.1,0.9,1.1,0.9",0.0,1.0,1
1,138.0,155,1,1.1,0.9,1.1,0.9,1,"155,'            ',138.0,1,1,1,1,1.0,0.0,1.1,0.9,1.1,0.9",0.0,1.0,1
1,138.0,156,1,1.1,0.9,1.1,0.9,1,"156,'            ',138.0,1,1,1,1,1.0,0.0,1.1,0.9,1.1,0.9",0.0,1.0,1
1,138.0,157,1,1.1,0.9,1.1,0.9,1,"157,'            ',138.0,1,1,1,1,1.0,0.0,1.1,0.9,1.1,0.9",0.0,1.0,1
1,138.0,158,1,1.1,0.9,1.1,0.9,1,"158,'            ',138.0,1,1,1,1,1.0,0.0,1.1,0.9,1.1,0.9",0.0,1.0,1
1,138.0,159,1,1.1,0.9,1.1,0.9,1,"159,'            ',138.0,1,1,1,1,1.0,0.0,1.1,0.9,1.1,0.9",0.0,1.0,1
1,138.0,160,1,1.1,0.9,1.1,0.9,1,"160,'            ',138.0,1,1,1,1,1.0,0.0,1.1,0.9,1.1,0.9",0.0,1.0,1
1,138.0,161,1,1.1,0.9,1.1,0.9,1,"161,'            ',138.0,1,1,1,1,1.0,0.0,1.1,0.9,1.1,0.9",0.0,1.0,1
1,345.0,162,1,1.1,0.9,1.1,0.9,1,"162,'            ',345.0,1,1,1,1,1.0,0.0,1.1,0.9,1.1,0.9",0.0,1.0,1
1,138.0,163,1,1.1,0.9,1.1,0.9,1,"163,'            ',138.0,1,1,1,1,1.0,0.0,1.1,0.9,1.1,0.9",0.0,1.0,1
1,138.0,164,1,1.1,0.9,1.1,0.9,1,"164,'            ',138.0,1,1,1,1,1.0,0.0,1.1,0.9,1.1,0.9",0.0,1.0,1
1,345.0,165,1,1.1,0.9,1.1,0.9,1,"165,'            ',345.0,1,1,1,1,1.0,0.0,1.1,0.9,1.1,0.9",0.0,1.0,1
1,138.0,166,1,1.1,0.9,1.1,0.9,1,"166,'            ',138.0,1,1,1,1,1.0,0.0,1.1,0.9,1.1,0.9",0.0,1.0,1
1,13.8,167,2,1.1,0.9,1.1,0.9,1,"167,'            ',13.8,2,1,1,1,1.0,0.0,1.1,0.9,1.1,0.9",0.0,1.0,1
1,13.8,168,2,1.1,0.9,1.1,0.9,1,"168,'            ',13.8,2,1,1,1,1.0,0.0,1.1,0.9,1.1,0.9",0.0,1.0,1
1,13.8,169,2,1.1,0.9,1.1,0.9,1,"169,'            ',13.8,2,1,1,1,1.0,0.0,1.1,0.9,1.1,0.9",0.0,1.0,1
1,138.0,170,1,1.1,0.9,1.1,0.9,1,"170,'            ',138.0,1,1,1,1,1.0,0.0,1.1,0.9,1.1,0.9",0.0,1.0,1
1,138.0,171,1,1.1,0.9,1.1,0.9,1,"171,'            ',138.0,1,1,1,1,1.0,0.0,1.1,0.9,1.1,0.9",0.0,1.0,1
1,138.0,172,1,1.1,0.9,1.1,0.9,1,"172,'            ',138.0,1,1,1,1,1.0,0.0,1.1,0.9,1.1,0.9",0.0,1.0,1
1,138.0,173,1,1.1,0.9,1.1,0.9,1,"173,'            ',138.0,1,1,1,1,1.0,0.0,1.1,0.9,1.1,0.9",0.0,1.0,1
1,138.0,174,1,1.1,0.9,1.1,0.9,1,"174,'            ',138.0,1,1,1,1,1.0,0.0,1.1,0.9,1.1,0.9",0.0,1.0,1
1,345.0,175,1,1.1,0.9,1.1,0.9,1,"175,'            ',345.0,1,1,1,1,1.0,0.0,1.1,0.9,1.1,0.9",0.0,1.0,1
1,138.0,176,1,1.1,0.9,1.1,0.9,1,"176,'            ',138.0,1,1,1,1,1.0,0.0,1.1,0.9,1.1,0.9",0.0,1.0,1
1,138.0,177,1,1.1,0.9,1.1,0.9,1,"177,'            ',138.0,1,1,1,1,1.0,0.0,1.1,0.9,1.1,0.9",0.0,1.0,1
1,138.0,178,1,1.1,0.9,1.1,0.9,1,"178,'            ',138.0,1,1,1,1,1.0,0.0,1.1,0.9,1.1,0.9",0.0,1.0,1
1,138.0,179,1,1.1,0.9,1.1,0.9,1,"179,'            ',138.0,1,1,1,1,1.0,0.0,1.1,0.9,1.1,0.9",0.0,1.0,1
1,138.0,180,1,1.1,0.9,1.1,0.9,1,"180,'            ',138.0,1,1,1,1,1.0,0.0,1.1,0.9,1.1,0.9",0.0,1.0,1
1,138.0,181,1,1.1,0.9,1.1,0.9,1,"181,'            ',138.0,1,1,1,1,1.0,0.0,1.1,0.9,1.1,0.9",0.0,1.0,1
1,138.0,182,1,1.1,0.9,1.1,0.9,1,"182,'            ',138.0,1,1,1,1,1.0,0.0,1.1,0.9,1.1,0.9",0.0,1.0,1
1,138.0,183,1,1.1,0.9,1.1,0.9,1,"183,'            ',138.0,1,1,1,1,1.0,0.0,1.1,0.9,1.1,0.9",0.0,1.0,1
1,138.0,184,1,1.1,0.9,1.1,0.9,1,"184,'            ',138.0,1,1,1,1,1.0,0.0,1.1,0.9,1.1,0.9",0.0,1.0,1
1,138.0,185,1,1.1,0.9,1.1,0.9,1,"185,'            ',138.0,1,1,1,1,1.0,0.0,1.1,0.9,1.1,0.9",0.0,1.0,1
1,138.0,186,1,1.1,0.9,1.1,0.9,1,"186,'            ',138.0,1,1,1,1,1.0,0.0,1.1,0.9,1.1,0.9",0.0,1.0,1
1,138.0,187,1,1.1,0.9,1.1,0.9,1,"187,'            ',138.0,1,1,1,1,1.0,0.0,1.1,0.9,1.1,0.9",0.0,1.0,1
1,138.0,188,1,1.1,0.9,1.1,0.9,1,"188,'            ',138.0,1,1,1,1,1.0,0.0,1.1,0.9,1.1,0.9",0.0,1.0,1
1,138.0,189,1,1.1,0.9,1.1,0.9,1,"189,'            ',138.0,1,1,1,1,1.0,0.0,1.1,0.9,1.1,0.9",0.0,1.0,1
1,138.0,190,1,1.1,0.9,1.1,0.9,1,"190,'            ',138.0,1,1,1,1,1.0,0.0,1.1,0.9,1.1,0.9",0.0,1.0,1
1,138.0,191,1,1.1,0.9,1.1,0.9,1,"191,'            ',138.0,1,1,1,1,1.0,0.0,1.1,0.9,1.1,0.9",0.0,1.0,1
1,138.0,192,1,1.1,0.9,1.1,0.9,1,"192,'            ',138.0,1,1,1,1,1.0,0.0,1.1,0.9,1.1,0.9",0.0,1.0,1
1,138.0,193,1,1.1,0.9,1.1,0.9,1,"193,'            ',138.0,1,1,1,1,1.0,0.0,1.1,0.9,1.1,0.9",0.0,1.0,1
1,138.0,194,1,1.1,0.9,1.1,0.9,1,"194,'            ',138.0,1,1,1,1,1.0,0.0,1.1,0.9,1.1,0.9",0.0,1.0,1
1,345.0,195,1,1.1,0.9,1.1,0.9,1,"195,'            ',345.0,1,1,1,1,1.0,0.0,1.1,0.9,1.1,0.9",0.0,1.0,1
1,138.0,196,1,1.1,0.9,1.1,0.9,1,"196,'            ',138.0,1,1,1,1,1.0,0.0,1.1,0.9,1.1,0.9",0.0,1.0,1
1,13.8,197,2,1.1,0.9,1.1,0.9,1,"197,'            ',13.8,2,1,1,1,1.0,0.0,1.1,0.9,1.1,0.9",0.0,1.0,1
1,13.8,198,2,1.1,0.9,1.1,0.9,1,"198,'            ',13.8,2,1,1,1,1.0,0.0,1.1,0.9,1.1,0.9",0.0,1.0,1
1,138.0,199,1,1.1,0.9,1.1,0.9,1,"199,'            ',138.0,1,1,1,1,1.0,0.0,1.1,0.9,1.1,0.9",0.0,1.0,1
1,138.0,200,1,1.1,0.9,1.1,0.9,1,"200,'            ',138.0,1,1,1,1,1.0,0.0,1.1,0.9,1.1,0.9",0.0,1.0,1
1,138.0,201,1,1.1,0.9,1.1,0.9,1,"201,'            ',138.0,1,1,1,1,1.0,0.0,1.1,0.9,1.1,0.9",0.0,1.0,1
1,138.0,202,1,1.1,0.9,1.1,0.9,1,"202,'            ',138.0,1,1,1,1,1.0,0.0,1.1,0.9,1.1,0.9",0.0,1.0,1
1,138.0,203,1,1.1,0.9,1.1,0.9,1,"203,'            ',138.0,1,1,1,1,1.0,0.0,1.1,0.9,1.1,0.9",0.0,1.0,1
1,138.0,204,1,1.1,0.9,1.1,0.9,1,"204,'            ',138.0,1,1,1,1,1.0,0.0,1.1,0.9,1.1,0.9",0.0,1.0,1
1,138.0,205,1,1.1,0.9,1.1,0.9,1,"205,'            ',138.0,1,1,1,1,1.0,0.0,1.1,0.9,1.1,0.9",0.0,1.0,1
1,138.0,206,1,1.1,0.9,1.1,0.9,1,"206,'            ',138.0,1,1,1,1,1.0,0.0,1.1,0.9,1.1,0.9",0.0,1.0,1
1,138.0,207,1,1.1,0.9,1.1,0.9,1,"207,'            ',138.0,1,1,1,1,1.0,0.0,1.1,0.9,1.1,0.9",0.0,1.0,1
1,138.0,208,1,1.1,0.9,1.1,0.9,1,"208,'            ',138.0,1,1,1,1,1.0,0.0,1.1,0.9,1.1,0.9",0.0,1.0,1
1,138.0,209,1,1.1,0.9,1.1,0.9,1,"209,'            ',138.0,1,1,1,1,1.0,0.0,1.1,0.9,1.1,0.9",0.0,1.0,1
1,138.0,210,1,1.1,0.9,1.1,0.9,1,"210,'            ',138.0,1,1,1,1,1.0,0.0,1.1,0.9,1.1,0.9",0.0,1.0,1
1,138.0,211,1,1.1,0.9,1.1,0.9,1,"211,'            ',138.0,1,1,1,1,1.0,0.0,1.1,0.9,1.1,0.9",0.0,1.0,1
1,138.0,212,1,1.1,0.9,1.1,0.9,1,"212,'            ',138.0,1,1,1,1,1.0,0.0,1.1,0.9,1.1,0.9",0.0,1.0,1
1,138.0,213,1,1.1,0.9,1.1,0.9,1,"213,'            ',138.0,1,1,1,1,1.0,0.0,1.1,0.9,1.1,0.9",0.0,1.0,1
1,138.0,214,1,1.1,0.9,1.1,0.9,1,"214,'            ',138.0,1,1,1,1,1.0,0.0,1.1,0.9,1.1,0.9",0.0,1.0,1
1,138.0,215,1,1.1,0.9,1.1,0.9,1,"215,'            ',138.0,1,1,1,1,1.0,0.0,1.1,0.9,1.1,0.9",0.0,1.0,1
1,138.0,216,1,1.1,0.9,1.1,0.9,1,"216,'            ',138.0,1,1,1,1,1.0,0.0,1.1,0.9,1.1,0.9",0.0,1.0,1
1,138.0,217,1,1.1,0.9,1.1,0.9,1,"217,'            ',138.0,1,1,1,1,1.0,0.0,1.1,0.9,1.1,0.9",0.0,1.0,1
1,138.0,218,1,1.1,0.9,1.1,0.9,1,"218,'            ',138.0,1,1,1,1,1.0,0.0,1.1,0.9,1.1,0.9",0.0,1.0,1
1,138.0,219,1,1.1,0.9,1.1,0.9,1,"219,'            ',138.0,1,1,1,1,1.0,0.0,1.1,0.9,1.1,0.9",0.0,1.0,1
1,345.0,220,1,1.1,0.9,1.1,0.9,1,"220,'            ',345.0,1,1,1,1,1.0,0.0,1.1,0.9,1.1,0.9",0.0,1.0,1
1,138.0,221,1,1.1,0.9,1.1,0.9,1,"221,'            ',138.0,1,1,1,1,1.0,0.0,1.1,0.9,1.1,0.9",0.0,1.0,1
1,13.8,222,2,1.1,0.9,1.1,0.9,1,"222,'            ',13.8,2,1,1,1,1.0,0.0,1.1,0.9,1.1,0.9",0.0,1.0,1
1,13.8,223,2,1.1,0.9,1.1,0.9,1,"223,'            ',13.8,2,1,1,1,1.0,0.0,1.1,0.9,1.1,0.9",0.0,1.0,1
1,13.8,224,2,1.1,0.9,1.1,0.9,1,"224,'            ',13.8,2,1,1,1,1.0,0.0,1.1,0.9,1.1,0.9",0.0,1.0,1
1,13.8,225,2,1.1,0.9,1.1,0.9,1,"225,'            ',13.8,2,1,1,1,1.0,0.0,1.1,0.9,1.1,0.9",0.0,1.0,1
1,138.0,226,1,1.1,0.9,1.1,0.9,1,"226,'            ',138.0,1,1,1,1,1.0,0.0,1.1,0.9,1.1,0.9",0.0,1.0,1
1,138.0,227,1,1.1,0.9,1.1,0.9,1,"227,'            ',138.0,1,1,1,1,1.0,0.0,1.1,0.9,1.1,0.9",0.0,1.0,1
1,138.0,228,1,1.1,0.9,1.1,0.9,1,"228,'            ',138.0,1,1,1,1,1.0,0.0,1.1,0.9,1.1,0.9",0.0,1.0,1
1,138.0,229,1,1.1,0.9,1.1,0.9,1,"229,'            ',138.0,1,1,1,1,1.0,0.0,1.1,0.9,1.1,0.9",0.0,1.0,1
1,138.0,230,1,1.1,0.9,1.1,0.9,1,"230,'            ',138.0,1,1,1,1,1.0,0.0,1.1,0.9,1.1,0.9",0.0,1.0,1
1,13.8,231,2,1.1,0.9,1.1,0.9,1,"231,'            ',13.8,2,1,1,1,1.0,0.0,1.1,0.9,1.1,0.9",0.0,1.0,1
1,345.0,232,1,1.1,0.9,1.1,0.9,1,"232,'            ',345.0,1,1,1,1,1.0,0.0,1.1,0.9,1.1,0.9",0.0,1.0,1
1,138.0,233,1,1.1,0.9,1.1,0.9,1,"233,'            ',138.0,1,1,1,1,1.0,0.0,1.1,0.9,1.1,0.9",0.0,1.0,1
1,138.0,234,1,1.1,0.9,1.1,0.9,1,"234,'            ',138.0,1,1,1,1,1.0,0.0,1.1,0.9,1.1,0.9",0.0,1.0,1
1,345.0,235,1,1.1,0.9,1.1,0.9,1,"235,'            ',345.0,1,1,1,1,1.0,0.0,1.1,0.9,1.1,0.9",0.0,1.0,1
1,138.0,236,1,1.1,0.9,1.1,0.9,1,"236,'            ',138.0,1,1,1,1,1.0,0.0,1.1,0.9,1.1,0.9",0.0,1.0,1
1,138.0,237,1,1.1,0.9,1.1,0.9,1,"237,'            ',138.0,1,1,1,1,1.0,0.0,1.1,0.9,1.1,0.9",0.0,1.0,1
1,138.0,238,1,1.1,0.9,1.1,0.9,1,"238,'            ',138.0,1,1,1,1,1.0,0.0,1.1,0.9,1.1,0.9",0.0,1.0,1
1,138.0,239,1,1.1,0.9,1.1,0.9,1,"239,'            ',138.0,1,1,1,1,1.0,0.0,1.1,0.9,1.1,0.9",0.0,1.0,1
1,138.0,240,1,1.1,0.9,1.1,0.9,1,"240,'            ',138.0,1,1,1,1,1.0,0.0,1.1,0.9,1.1,0.9",0.0,1.0,1
1,138.0,241,1,1.1,0.9,1.1,0.9,1,"241,'            ',138.0,1,1,1,1,1.0,0.0,1.1,0.9,1.1,0.9",0.0,1.0,1
1,138.0,242,1,1.1,0.9,1.1,0.9,1,"242,'            ',138.0,1,1,1,1,1.0,0.0,1.1,0.9,1.1,0.9",0.0,1.0,1
1,138.0,243,1,1.1,0.9,1.1,0.9,1,"243,'            ',138.0,1,1,1,1,1.0,0.0,1.1,0.9,1.1,0.9",0.0,1.0,1
1,138.0,244,1,1.1,0.9,1.1,0.9,1,"244,'            ',138.0,1,1,1,1,1.0,0.0,1.1,0.9,1.1,0.9",0.0,1.0,1
1,138.0,245,1,1.1,0.9,1.1,0.9,1,"245,'            ',138.0,1,1,1,1,1.0,0.0,1.1,0.9,1.1,0.9",0.0,1.0,1
1,345.0,246,1,1.1,0.9,1.1,0.9,1,"246,'            ',345.0,1,1,1,1,1.0,0.0,1.1,0.9,1.1,0.9",0.0,1.0,1
1,138.0,247,1,1.1,0.9,1.1,0.9,1,"247,'            ',138.0,1,1,1,1,1.0,0.0,1.1,0.9,1.1,0.9",0.0,1.0,1
1,13.8,248,2,1.1,0.9,1.1,0.9,1,"248,'            ',13.8,2,1,1,1,1.0,0.0,1.1,0.9,1.1,0.9",0.0,1.0,1
1,13.8,249,2,1.1,0.9,1.1,0.9,1,"249,'            ',13.8,2,1,1,1,1.0,0.0,1.1,0.9,1.1,0.9",0.0,1.0,1
1,13.8,250,2,1.1,0.9,1.1,0.9,1,"250,'            ',13.8,2,1,1,1,1.0,0.0,1.1,0.9,1.1,0.9",0.0,1.0,1
1,138.0,251,1,1.1,0.9,1.1,0.9,1,"251,'            ',138.0,1,1,1,1,1.0,0.0,1.1,0.9,1.1,0.9",0.0,1.0,1
1,138.0,252,1,1.1,0.9,1.1,0.9,1,"252,'            ',138.0,1,1,1,1,1.0,0.0,1.1,0.9,1.1,0.9",0.0,1.0,1
1,138.0,253,1,1.1,0.9,1.1,0.9,1,"253,'            ',138.0,1,1,1,1,1.0,0.0,1.1,0.9,1.1,0.9",0.0,1.0,1
1,13.8,254,2,1.1,0.9,1.1,0.9,1,"254,'            ',13.8,2,1,1,1,1.0,0.0,1.1,0.9,1.1,0.9",0.0,1.0,1
1,13.8,255,2,1.1,0.9,1.1,0.9,1,"255,'            ',13.8,2,1,1,1,1.0,0.0,1.1,0.9,1.1,0.9",0.0,1.0,1
1,13.8,256,2,1.1,0.9,1.1,0.9,1,"256,'            ',13.8,2,1,1,1,1.0,0.0,1.1,0.9,1.1,0.9",0.0,1.0,1
1,13.8,257,2,1.1,0.9,1.1,0.9,1,"257,'            ',13.8,2,1,1,1,1.0,0.0,1.1,0.9,1.1,0.9",0.0,1.0,1
1,13.8,258,2,1.1,0.9,1.1,0.9,1,"258,'            ',13.8,2,1,1,1,1.0,0.0,1.1,0.9,1.1,0.9",0.0,1.0,1
1,138.0,259,1,1.1,0.9,1.1,0.9,1,"259,'            ',138.0,1,1,1,1,1.0,0.0,1.1,0.9,1.1,0.9",0.0,1.0,1
1,138.0,260,1,1.1,0.9,1.1,0.9,1,"260,'            ',138.0,1,1,1,1,1.0,0.0,1.1,0.9,1.1,0.9",0.0,1.0,1
1,138.0,261,1,1.1,0.9,1.1,0.9,1,"261,'            ',138.0,1,1,1,1,1.0,0.0,1.1,0.9,1.1,0.9",0.0,1.0,1
1,345.0,262,1,1.1,0.9,1.1,0.9,1,"262,'            ',345.0,1,1,1,1,1.0,0.0,1.1,0.9,1.1,0.9",0.0,1.0,1
1,138.0,263,1,1.1,0.9,1.1,0.9,1,"263,'            ',138.0,1,1,1,1,1.0,0.0,1.1,0.9,1.1,0.9",0.0,1.0,1
1,13.8,264,2,1.1,0.9,1.1,0.9,1,"264,'            ',13.8,2,1,1,1,1.0,0.0,1.1,0.9,1.1,0.9",0.0,1.0,1
1,13.8,265,2,1.1,0.9,1.1,0.9,1,"265,'            ',13.8,2,1,1,1,1.0,0.0,1.1,0.9,1.1,0.9",0.0,1.0,1
1,138.0,266,1,1.1,0.9,1.1,0.9,1,"266,'            ',138.0,1,1,1,1,1.0,0.0,1.1,0.9,1.1,0.9",0.0,1.0,1
1,138.0,267,1,1.1,0.9,1.1,0.9,1,"267,'            ',138.0,1,1,1,1,1.0,0.0,1.1,0.9,1.1,0.9",0.0,1.0,1
1,138.0,268,1,1.1,0.9,1.1,0.9,1,"268,'            ',138.0,1,1,1,1,1.0,0.0,1.1,0.9,1.1,0.9",0.0,1.0,1
1,138.0,269,1,1.1,0.9,1.1,0.9,1,"269,'            ',138.0,1,1,1,1,1.0,0.0,1.1,0.9,1.1,0.9",0.0,1.0,1
1,138.0,270,1,1.1,0.9,1.1,0.9,1,"270,'            ',138.0,1,1,1,1,1.0,0.0,1.1,0.9,1.1,0.9",0.0,1.0,1
1,345.0,271,1,1.1,0.9,1.1,0.9,1,"271,'            ',345.0,1,1,1,1,1.0,0.0,1.1,0.9,1.1,0.9",0.0,1.0,1
1,138.0,272,1,1.1,0.9,1.1,0.9,1,"272,'            ',138.0,1,1,1,1,1.0,0.0,1.1,0.9,1.1,0.9",0.0,1.0,1
1,138.0,273,1,1.1,0.9,1.1,0.9,1,"273,'            ',138.0,1,1,1,1,1.0,0.0,1.1,0.9,1.1,0.9",0.0,1.0,1
1,138.0,274,1,1.1,0.9,1.1,0.9,1,"274,'            ',138.0,1,1,1,1,1.0,0.0,1.1,0.9,1.1,0.9",0.0,1.0,1
1,13.8,275,2,1.1,0.9,1.1,0.9,1,"275,'            ',13.8,2,1,1,1,1.0,0.0,1.1,0.9,1.1,0.9",0.0,1.0,1
1,138.0,276,1,1.1,0.9,1.1,0.9,1,"276,'            ',138.0,1,1,1,1,1.0,0.0,1.1,0.9,1.1,0.9",0.0,1.0,1
1,138.0,277,1,1.1,0.9,1.1,0.9,1,"277,'            ',138.0,1,1,1,1,1.0,0.0,1.1,0.9,1.1,0.9",0.0,1.0,1
1,138.0,278,1,1.1,0.9,1.1,0.9,1,"278,'            ',138.0,1,1,1,1,1.0,0.0,1.1,0.9,1.1,0.9",0.0,1.0,1
1,138.0,279,1,1.1,0.9,1.1,0.9,1,"279,'            ',138.0,1,1,1,1,1.0,0.0,1.1,0.9,1.1,0.9",0.0,1.0,1
1,138.0,280,1,1.1,0.9,1.1,0.9,1,"280,'            ',138.0,1,1,1,1,1.0,0.0,1.1,0.9,1.1,0.9",0.0,1.0,1
1,138.0,281,1,1.1,0.9,1.1,0.9,1,"281,'            ',138.0,1,1,1,1,1.0,0.0,1.1,0.9,1.1,0.9",0.0,1.0,1
1,138.0,282,1,1.1,0.9,1.1,0.9,1,"282,'            ',138.0,1,1,1,1,1.0,0.0,1.1,0.9,1.1,0.9",0.0,1.0,1
1,138.0,283,1,1.1,0.9,1.1,0.9,1,"283,'            ',138.0,1,1,1,1,1.0,0.0,1.1,0.9,1.1,0.9",0.0,1.0,1
1,138.0,284,1,1.1,0.9,1.1,0.9,1,"284,'            ',138.0,1,1,1,1,1.0,0.0,1.1,0.9,1.1,0.9",0.0,1.0,1
1,138.0,285,1,1.1,0.9,1.1,0.9,1,"285,'            ',138.0,1,1,1,1,1.0,0.0,1.1,0.9,1.1,0.9",0.0,1.0,1
1,138.0,286,1,1.1,0.9,1.1,0.9,1,"286,'            ',138.0,1,1,1,1,1.0,0.0,1.1,0.9,1.1,0.9",0.0,1.0,1
1,138.0,287,1,1.1,0.9,1.1,0.9,1,"287,'            ',138.0,1,1,1,1,1.0,0.0,1.1,0.9,1.1,0.9",0.0,1.0,1
1,138.0,288,1,1.1,0.9,1.1,0.9,1,"288,'            ',138.0,1,1,1,1,1.0,0.0,1.1,0.9,1.1,0.9",0.0,1.0,1
1,138.0,289,1,1.1,0.9,1.1,0.9,1,"289,'            ',138.0,1,1,1,1,1.0,0.0,1.1,0.9,1.1,0.9",0.0,1.0,1
1,138.0,290,1,1.1,0.9,1.1,0.9,1,"290,'            ',138.0,1,1,1,1,1.0,0.0,1.1,0.9,1.1,0.9",0.0,1.0,1
1,138.0,291,1,1.1,0.9,1.1,0.9,1,"291,'            ',138.0,1,1,1,1,1.0,0.0,1.1,0.9,1.1,0.9",0.0,1.0,1
1,138.0,292,1,1.1,0.9,1.1,0.9,1,"292,'            ',138.0,1,1,1,1,1.0,0.0,1.1,0.9,1.1,0.9",0.0,1.0,1
1,138.0,293,1,1.1,0.9,1.1,0.9,1,"293,'            ',138.0,1,1,1,1,1.0,0.0,1.1,0.9,1.1,0.9",0.0,1.0,1
1,138.0,294,1,1.1,0.9,1.1,0.9,1,"294,'            ',138.0,1,1,1,1,1.0,0.0,1.1,0.9,1.1,0.9",0.0,1.0,1
1,138.0,295,1,1.1,0.9,1.1,0.9,1,"295,'            ',138.0,1,1,1,1,1.0,0.0,1.1,0.9,1.1,0.9",0.0,1.0,1
1,138.0,296,1,1.1,0.9,1.1,0.9,1,"296,'            ',138.0,1,1,1,1,1.0,0.0,1.1,0.9,1.1,0.9",0.0,1.0,1
1,345.0,297,1,1.1,0.9,1.1,0.9,1,"297,'            ',345.0,1,1,1,1,1.0,0.0,1.1,0.9,1.1,0.9",0.0,1.0,1
1,138.0,298,1,1.1,0.9,1.1,0.9,1,"298,'            ',138.0,1,1,1,1,1.0,0.0,1.1,0.9,1.1,0.9",0.0,1.0,1
1,138.0,299,1,1.1,0.9,1.1,0.9,1,"299,'            ',138.0,1,1,1,1,1.0,0.0,1.1,0.9,1.1,0.9",0.0,1.0,1
1,138.0,300,1,1.1,0.9,1.1,0.9,1,"300,'            ',138.0,1,1,1,1,1.0,0.0,1.1,0.9,1.1,0.9",0.0,1.0,1
1,13.8,301,2,1.1,0.9,1.1,0.9,1,"301,'            ',13.8,2,1,1,1,1.0,0.0,1.1,0.9,1.1,0.9",0.0,1.0,1
1,13.8,302,2,1.1,0.9,1.1,0.9,1,"302,'            ',13.8,2,1,1,1,1.0,0.0,1.1,0.9,1.1,0.9",0.0,1.0,1
1,138.0,303,1,1.1,0.9,1.1,0.9,1,"303,'            ',138.0,1,1,1,1,1.0,0.0,1.1,0.9,1.1,0.9",0.0,1.0,1
1,138.0,304,1,1.1,0.9,1.1,0.9,1,"304,'            ',138.0,1,1,1,1,1.0,0.0,1.1,0.9,1.1,0.9",0.0,1.0,1
1,13.8,305,2,1.1,0.9,1.1,0.9,1,"305,'            ',13.8,2,1,1,1,1.0,0.0,1.1,0.9,1.1,0.9",0.0,1.0,1
1,13.8,306,2,1.1,0.9,1.1,0.9,1,"306,'            ',13.8,2,1,1,1,1.0,0.0,1.1,0.9,1.1,0.9",0.0,1.0,1
1,138.0,307,1,1.1,0.9,1.1,0.9,1,"307,'            ',138.0,1,1,1,1,1.0,0.0,1.1,0.9,1.1,0.9",0.0,1.0,1
1,138.0,308,1,1.1,0.9,1.1,0.9,1,"308,'            ',138.0,1,1,1,1,1.0,0.0,1.1,0.9,1.1,0.9",0.0,1.0,1
1,138.0,309,1,1.1,0.9,1.1,0.9,1,"309,'            ',138.0,1,1,1,1,1.0,0.0,1.1,0.9,1.1,0.9",0.0,1.0,1
1,138.0,310,1,1.1,0.9,1.1,0.9,1,"310,'            ',138.0,1,1,1,1,1.0,0.0,1.1,0.9,1.1,0.9",0.0,1.0,1
1,138.0,311,1,1.1,0.9,1.1,0.9,1,"311,'            ',138.0,1,1,1,1,1.0,0.0,1.1,0.9,1.1,0.9",0.0,1.0,1
1,138.0,312,1,1.1,0.9,1.1,0.9,1,"312,'            ',138.0,1,1,1,1,1.0,0.0,1.1,0.9,1.1,0.9",0.0,1.0,1
1,138.0,313,1,1.1,0.9,1.1,0.9,1,"313,'            ',138.0,1,1,1,1,1.0,0.0,1.1,0.9,1.1,0.9",0.0,1.0,1
1,138.0,314,1,1.1,0.9,1.1,0.9,1,"314,'            ',138.0,1,1,1,1,1.0,0.0,1.1,0.9,1.1,0.9",0.0,1.0,1
1,138.0,315,1,1.1,0.9,1.1,0.9,1,"315,'            ',138.0,1,1,1,1,1.0,0.0,1.1,0.9,1.1,0.9",0.0,1.0,1
1,138.0,316,1,1.1,0.9,1.1,0.9,1,"316,'            ',138.0,1,1,1,1,1.0,0.0,1.1,0.9,1.1,0.9",0.0,1.0,1
1,138.0,317,1,1.1,0.9,1.1,0.9,1,"317,'            ',138.0,1,1,1,1,1.0,0.0,1.1,0.9,1.1,0.9",0.0,1.0,1
1,138.0,318,1,1.1,0.9,1.1,0.9,1,"318,'            ',138.0,1,1,1,1,1.0,0.0,1.1,0.9,1.1,0.9",0.0,1.0,1
1,13.8,319,2,1.1,0.9,1.1,0.9,1,"319,'            ',13.8,2,1,1,1,1.0,0.0,1.1,0.9,1.1,0.9",0.0,1.0,1
1,138.0,320,1,1.1,0.9,1.1,0.9,1,"320,'            ',138.0,1,1,1,1,1.0,0.0,1.1,0.9,1.1,0.9",0.0,1.0,1
1,138.0,321,1,1.1,0.9,1.1,0.9,1,"321,'            ',138.0,1,1,1,1,1.0,0.0,1.1,0.9,1.1,0.9",0.0,1.0,1
1,138.0,322,1,1.1,0.9,1.1,0.9,1,"322,'            ',138.0,1,1,1,1,1.0,0.0,1.1,0.9,1.1,0.9",0.0,1.0,1
1,138.0,323,1,1.1,0.9,1.1,0.9,1,"323,'            ',138.0,1,1,1,1,1.0,0.0,1.1,0.9,1.1,0.9",0.0,1.0,1
1,138.0,324,1,1.1,0.9,1.1,0.9,1,"324,'            ',138.0,1,1,1,1,1.0,0.0,1.1,0.9,1.1,0.9",0.0,1.0,1
1,138.0,325,1,1.1,0.9,1.1,0.9,1,"325,'            ',138.0,1,1,1,1,1.0,0.0,1.1,0.9,1.1,0.9",0.0,1.0,1
1,138.0,326,1,1.1,0.9,1.1,0.9,1,"326,'            ',138.0,1,1,1,1,1.0,0.0,1.1,0.9,1.1,0.9",0.0,1.0,1
1,138.0,327,1,1.1,0.9,1.1,0.9,1,"327,'            ',138.0,1,1,1,1,1.0,0.0,1.1,0.9,1.1,0.9",0.0,1.0,1
1,138.0,328,1,1.1,0.9,1.1,0.9,1,"328,'            ',138.0,1,1,1,1,1.0,0.0,1.1,0.9,1.1,0.9",0.0,1.0,1
1,138.0,329,1,1.1,0.9,1.1,0.9,1,"329,'            ',138.0,1,1,1,1,1.0,0.0,1.1,0.9,1.1,0.9",0.0,1.0,1
1,138.0,330,1,1.1,0.9,1.1,0.9,1,"330,'            ',138.0,1,1,1,1,1.0,0.0,1.1,0.9,1.1,0.9",0.0,1.0,1
1,138.0,331,1,1.1,0.9,1.1,0.9,1,"331,'            ',138.0,1,1,1,1,1.0,0.0,1.1,0.9,1.1,0.9",0.0,1.0,1
1,345.0,332,1,1.1,0.9,1.1,0.9,1,"332,'            ',345.0,1,1,1,1,1.0,0.0,1.1,0.9,1.1,0.9",0.0,1.0,1
1,138.0,333,1,1.1,0.9,1.1,0.9,1,"333,'            ',138.0,1,1,1,1,1.0,0.0,1.1,0.9,1.1,0.9",0.0,1.0,1
1,138.0,334,1,1.1,0.9,1.1,0.9,1,"334,'            ',138.0,1,1,1,1,1.0,0.0,1.1,0.9,1.1,0.9",0.0,1.0,1
1,138.0,335,1,1.1,0.9,1.1,0.9,1,"335,'            ',138.0,1,1,1,1,1.0,0.0,1.1,0.9,1.1,0.9",0.0,1.0,1
1,138.0,336,1,1.1,0.9,1.1,0.9,1,"336,'            ',138.0,1,1,1,1,1.0,0.0,1.1,0.9,1.1,0.9",0.0,1.0,1
1,138.0,337,1,1.1,0.9,1.1,0.9,1,"337,'            ',138.0,1,1,1,1,1.0,0.0,1.1,0.9,1.1,0.9",0.0,1.0,1
1,138.0,338,1,1.1,0.9,1.1,0.9,1,"338,'            ',138.0,1,1,1,1,1.0,0.0,1.1,0.9,1.1,0.9",0.0,1.0,1
1,138.0,339,1,1.1,0.9,1.1,0.9,1,"339,'            ',138.0,1,1,1,1,1.0,0.0,1.1,0.9,1.1,0.9",0.0,1.0,1
1,138.0,340,1,1.1,0.9,1.1,0.9,1,"340,'            ',138.0,1,1,1,1,1.0,0.0,1.1,0.9,1.1,0.9",0.0,1.0,1
1,138.0,341,1,1.1,0.9,1.1,0.9,1,"341,'            ',138.0,1,1,1,1,1.0,0.0,1.1,0.9,1.1,0.9",0.0,1.0,1
1,138.0,342,1,1.1,0.9,1.1,0.9,1,"342,'            ',138.0,1,1,1,1,1.0,0.0,1.1,0.9,1.1,0.9",0.0,1.0,1
1,138.0,343,1,1.1,0.9,1.1,0.9,1,"343,'            ',138.0,1,1,1,1,1.0,0.0,1.1,0.9,1.1,0.9",0.0,1.0,1
1,138.0,344,1,1.1,0.9,1.1,0.9,1,"344,'            ',138.0,1,1,1,1,1.0,0.0,1.1,0.9,1.1,0.9",0.0,1.0,1
1,138.0,345,1,1.1,0.9,1.1,0.9,1,"345,'            ',138.0,1,1,1,1,1.0,0.0,1.1,0.9,1.1,0.9",0.0,1.0,1
1,138.0,346,1,1.1,0.9,1.1,0.9,1,"346,'            ',138.0,1,1,1,1,1.0,0.0,1.1,0.9,1.1,0.9",0.0,1.0,1
1,138.0,347,1,1.1,0.9,1.1,0.9,1,"347,'            ',138.0,1,1,1,1,1.0,0.0,1.1,0.9,1.1,0.9",0.0,1.0,1
1,138.0,348,1,1.1,0.9,1.1,0.9,1,"348,'            ',138.0,1,1,1,1,1.0,0.0,1.1,0.9,1.1,0.9",0.0,1.0,1
1,138.0,349,1,1.1,0.9,1.1,0.9,1,"349,'            ',138.0,1,1,1,1,1.0,0.0,1.1,0.9,1.1,0.9",0.0,1.0,1
1,13.8,350,2,1.1,0.9,1.1,0.9,1,"350,'            ',13.8,2,1,1,1,1.0,0.0,1.1,0.9,1.1,0.9",0.0,1.0,1
1,13.8,351,2,1.1,0.9,1.1,0.9,1,"351,'            ',13.8,2,1,1,1,1.0,0.0,1.1,0.9,1.1,0.9",0.0,1.0,1
1,13.8,352,2,1.1,0.9,1.1,0.9,1,"352,'            ',13.8,2,1,1,1,1.0,0.0,1.1,0.9,1.1,0.9",0.0,1.0,1
1,13.8,353,2,1.1,0.9,1.1,0.9,1,"353,'            ',13.8,2,1,1,1,1.0,0.0,1.1,0.9,1.1,0.9",0.0,1.0,1
1,138.0,354,1,1.1,0.9,1.1,0.9,1,"354,'            ',138.0,1,1,1,1,1.0,0.0,1.1,0.9,1.1,0.9",0.0,1.0,1
1,138.0,355,1,1.1,0.9,1.1,0.9,1,"355,'            ',138.0,1,1,1,1,1.0,0.0,1.1,0.9,1.1,0.9",0.0,1.0,1
1,138.0,356,1,1.1,0.9,1.1,0.9,1,"356,'            ',138.0,1,1,1,1,1.0,0.0,1.1,0.9,1.1,0.9",0.0,1.0,1
1,138.0,357,1,1.1,0.9,1.1,0.9,1,"357,'            ',138.0,1,1,1,1,1.0,0.0,1.1,0.9,1.1,0.9",0.0,1.0,1
1,138.0,358,1,1.1,0.9,1.1,0.9,1,"358,'            ',138.0,1,1,1,1,1.0,0.0,1.1,0.9,1.1,0.9",0.0,1.0,1
1,138.0,359,1,1.1,0.9,1.1,0.9,1,"359,'            ',138.0,1,1,1,1,1.0,0.0,1.1,0.9,1.1,0.9",0.0,1.0,1
1,138.0,360,1,1.1,0.9,1.1,0.9,1,"360,'            ',138.0,1,1,1,1,1.0,0.0,1.1,0.9,1.1,0.9",0.0,1.0,1
1,13.8,361,2,1.1,0.9,1.1,0.9,1,"361,'            ',13.8,2,1,1,1,1.0,0.0,1.1,0.9,1.1,0.9",0.0,1.0,1
1,13.8,362,2,1.1,0.9,1.1,0.9,1,"362,'            ',13.8,2,1,1,1,1.0,0.0,1.1,0.9,1.1,0.9",0.0,1.0,1
1,13.8,363,2,1.1,0.9,1.1,0.9,1,"363,'            ',13.8,2,1,1,1,1.0,0.0,1.1,0.9,1.1,0.9",0.0,1.0,1
1,138.0,364,1,1.1,0.9,1.1,0.9,1,"364,'            ',138.0,1,1,1,1,1.0,0.0,1.1,0.9,1.1,0.9",0.0,1.0,1
1,138.0,365,1,1.1,0.9,1.1,0.9,1,"365,'            ',138.0,1,1,1,1,1.0,0.0,1.1,0.9,1.1,0.9",0.0,1.0,1
1,138.0,366,1,1.1,0.9,1.1,0.9,1,"366,'            ',138.0,1,1,1,1,1.0,0.0,1.1,0.9,1.1,0.9",0.0,1.0,1
1,138.0,367,1,1.1,0.9,1.1,0.9,1,"367,'            ',138.0,1,1,1,1,1.0,0.0,1.1,0.9,1.1,0.9",0.0,1.0,1
1,138.0,368,1,1.1,0.9,1.1,0.9,1,"368,'            ',138.0,1,1,1,1,1.0,0.0,1.1,0.9,1.1,0.9",0.0,1.0,1
1,138.0,369,1,1.1,0.9,1.1,0.9,1,"369,'            ',138.0,1,1,1,1,1.0,0.0,1.1,0.9,1.1,0.9",0.0,1.0,1
1,138.0,370,1,1.1,0.9,1.1,0.9,1,"370,'            ',138.0,1,1,1,1,1.0,0.0,1.1,0.9,1.1,0.9",0.0,1.0,1
1,345.0,371,1,1.1,0.9,1.1,0.9,1,"371,'            ',345.0,1,1,1,1,1.0,0.0,1.1,0.9,1.1,0.9",0.0,1.0,1
1,138.0,372,1,1.1,0.9,1.1,0.9,1,"372,'            ',138.0,1,1,1,1,1.0,0.0,1.1,0.9,1.1,0.9",0.0,1.0,1
1,138.0,373,1,1.1,0.9,1.1,0.9,1,"373,'            ',138.0,1,1,1,1,1.0,0.0,1.1,0.9,1.1,0.9",0.0,1.0,1
1,138.0,374,1,1.1,0.9,1.1,0.9,1,"374,'            ',138.0,1,1,1,1,1.0,0.0,1.1,0.9,1.1,0.9",0.0,1.0,1
1,138.0,375,1,1.1,0.9,1.1,0.9,1,"375,'            ',138.0,1,1,1,1,1.0,0.0,1.1,0.9,1.1,0.9",0.0,1.0,1
1,138.0,376,1,1.1,0.9,1.1,0.9,1,"376,'            ',138.0,1,1,1,1,1.0,0.0,1.1,0.9,1.1,0.9",0.0,1.0,1
1,138.0,377,1,1.1,0.9,1.1,0.9,1,"377,'            ',138.0,1,1,1,1,1.0,0.0,1.1,0.9,1.1,0.9",0.0,1.0,1
1,138.0,378,1,1.1,0.9,1.1,0.9,1,"378,'            ',138.0,1,1,1,1,1.0,0.0,1.1,0.9,1.1,0.9",0.0,1.0,1
1,138.0,379,1,1.1,0.9,1.1,0.9,1,"379,'            ',138.0,1,1,1,1,1.0,0.0,1.1,0.9,1.1,0.9",0.0,1.0,1
1,138.0,380,1,1.1,0.9,1.1,0.9,1,"380,'            ',138.0,1,1,1,1,1.0,0.0,1.1,0.9,1.1,0.9",0.0,1.0,1
1,138.0,381,1,1.1,0.9,1.1,0.9,1,"381,'            ',138.0,1,1,1,1,1.0,0.0,1.1,0.9,1.1,0.9",0.0,1.0,1
1,138.0,382,1,1.1,0.9,1.1,0.9,1,"382,'            ',138.0,1,1,1,1,1.0,0.0,1.1,0.9,1.1,0.9",0.0,1.0,1
1,138.0,383,1,1.1,0.9,1.1,0.9,1,"383,'            ',138.0,1,1,1,1,1.0,0.0,1.1,0.9,1.1,0.9",0.0,1.0,1
1,138.0,384,1,1.1,0.9,1.1,0.9,1,"384,'            ',138.0,1,1,1,1,1.0,0.0,1.1,0.9,1.1,0.9",0.0,1.0,1
1,138.0,385,1,1.1,0.9,1.1,0.9,1,"385,'            ',138.0,1,1,1,1,1.0,0.0,1.1,0.9,1.1,0.9",0.0,1.0,1
1,345.0,386,1,1.1,0.9,1.1,0.9,1,"386,'            ',345.0,1,1,1,1,1.0,0.0,1.1,0.9,1.1,0.9",0.0,1.0,1
1,138.0,387,1,1.1,0.9,1.1,0.9,1,"387,'            ',138.0,1,1,1,1,1.0,0.0,1.1,0.9,1.1,0.9",0.0,1.0,1
1,13.8,388,2,1.1,0.9,1.1,0.9,1,"388,'            ',13.8,2,1,1,1,1.0,0.0,1.1,0.9,1.1,0.9",0.0,1.0,1
1,13.8,389,2,1.1,0.9,1.1,0.9,1,"389,'            ',13.8,2,1,1,1,1.0,0.0,1.1,0.9,1.1,0.9",0.0,1.0,1
1,13.8,390,2,1.1,0.9,1.1,0.9,1,"390,'            ',13.8,2,1,1,1,1.0,0.0,1.1,0.9,1.1,0.9",0.0,1.0,1
1,13.8,391,2,1.1,0.9,1.1,0.9,1,"391,'            ',13.8,2,1,1,1,1.0,0.0,1.1,0.9,1.1,0.9",0.0,1.0,1
1,13.8,392,2,1.1,0.9,1.1,0.9,1,"392,'            ',13.8,2,1,1,1,1.0,0.0,1.1,0.9,1.1,0.9",0.0,1.0,1
1,13.8,393,2,1.1,0.9,1.1,0.9,1,"393,'            ',13.8,2,1,1,1,1.0,0.0,1.1,0.9,1.1,0.9",0.0,1.0,1
1,13.8,394,2,1.1,0.9,1.1,0.9,1,"394,'            ',13.8,2,1,1,1,1.0,0.0,1.1,0.9,1.1,0.9",0.0,1.0,1
1,13.8,395,2,1.1,0.9,1.1,0.9,1,"395,'            ',13.8,2,1,1,1,1.0,0.0,1.1,0.9,1.1,0.9",0.0,1.0,1
1,13.8,396,2,1.1,0.9,1.1,0.9,1,"396,'            ',13.8,2,1,1,1,1.0,0.0,1.1,0.9,1.1,0.9",0.0,1.0,1
1,138.0,397,1,1.1,0.9,1.1,0.9,1,"397,'            ',138.0,1,1,1,1,1.0,0.0,1.1,0.9,1.1,0.9",0.0,1.0,1
1,138.0,398,1,1.1,0.9,1.1,0.9,1,"398,'            ',138.0,1,1,1,1,1.0,0.0,1.1,0.9,1.1,0.9",0.0,1.0,1
1,138.0,399,1,1.1,0.9,1.1,0.9,1,"399,'            ',138.0,1,1,1,1,1.0,0.0,1.1,0.9,1.1,0.9",0.0,1.0,1
1,138.0,400,1,1.1,0.9,1.1,0.9,1,"400,'            ',138.0,1,1,1,1,1.0,0.0,1.1,0.9,1.1,0.9",0.0,1.0,1
1,138.0,401,1,1.1,0.9,1.1,0.9,1,"401,'            ',138.0,1,1,1,1,1.0,0.0,1.1,0.9,1.1,0.9",0.0,1.0,1
1,138.0,402,1,1.1,0.9,1.1,0.9,1,"402,'            ',138.0,1,1,1,1,1.0,0.0,1.1,0.9,1.1,0.9",0.0,1.0,1
1,138.0,403,1,1.1,0.9,1.1,0.9,1,"403,'            ',138.0,1,1,1,1,1.0,0.0,1.1,0.9,1.1,0.9",0.0,1.0,1
1,138.0,404,1,1.1,0.9,1.1,0.9,1,"404,'            ',138.0,1,1,1,1,1.0,0.0,1.1,0.9,1.1,0.9",0.0,1.0,1
1,138.0,405,1,1.1,0.9,1.1,0.9,1,"405,'            ',138.0,1,1,1,1,1.0,0.0,1.1,0.9,1.1,0.9",0.0,1.0,1
1,138.0,406,1,1.1,0.9,1.1,0.9,1,"406,'            ',138.0,1,1,1,1,1.0,0.0,1.1,0.9,1.1,0.9",0.0,1.0,1
1,345.0,407,1,1.1,0.9,1.1,0.9,1,"407,'            ',345.0,1,1,1,1,1.0,0.0,1.1,0.9,1.1,0.9",0.0,1.0,1
1,138.0,408,1,1.1,0.9,1.1,0.9,1,"408,'            ',138.0,1,1,1,1,1.0,0.0,1.1,0.9,1.1,0.9",0.0,1.0,1
1,13.8,409,2,1.1,0.9,1.1,0.9,1,"409,'            ',13.8,2,1,1,1,1.0,0.0,1.1,0.9,1.1,0.9",0.0,1.0,1
1,13.8,410,2,1.1,0.9,1.1,0.9,1,"410,'            ',13.8,2,1,1,1,1.0,0.0,1.1,0.9,1.1,0.9",0.0,1.0,1
1,13.8,411,2,1.1,0.9,1.1,0.9,1,"411,'            ',13.8,2,1,1,1,1.0,0.0,1.1,0.9,1.1,0.9",0.0,1.0,1
1,13.8,412,2,1.1,0.9,1.1,0.9,1,"412,'            ',13.8,2,1,1,1,1.0,0.0,1.1,0.9,1.1,0.9",0.0,1.0,1
1,13.8,413,2,1.1,0.9,1.1,0.9,1,"413,'            ',13.8,2,1,1,1,1.0,0.0,1.1,0.9,1.1,0.9",0.0,1.0,1
1,13.8,414,2,1.1,0.9,1.1,0.9,1,"414,'            ',13.8,2,1,1,1,1.0,0.0,1.1,0.9,1.1,0.9",0.0,1.0,1
1,138.0,415,1,1.1,0.9,1.1,0.9,1,"415,'            ',138.0,1,1,1,1,1.0,0.0,1.1,0.9,1.1,0.9",0.0,1.0,1
1,138.0,416,1,1.1,0.9,1.1,0.9,1,"416,'            ',138.0,1,1,1,1,1.0,0.0,1.1,0.9,1.1,0.9",0.0,1.0,1
1,138.0,417,1,1.1,0.9,1.1,0.9,1,"417,'            ',138.0,1,1,1,1,1.0,0.0,1.1,0.9,1.1,0.9",0.0,1.0,1
1,138.0,418,1,1.1,0.9,1.1,0.9,1,"418,'            ',138.0,1,1,1,1,1.0,0.0,1.1,0.9,1.1,0.9",0.0,1.0,1
1,138.0,419,1,1.1,0.9,1.1,0.9,1,"419,'            ',138.0,1,1,1,1,1.0,0.0,1.1,0.9,1.1,0.9",0.0,1.0,1
1,138.0,420,1,1.1,0.9,1.1,0.9,1,"420,'            ',138.0,1,1,1,1,1.0,0.0,1.1,0.9,1.1,0.9",0.0,1.0,1
1,138.0,421,1,1.1,0.9,1.1,0.9,1,"421,'            ',138.0,1,1,1,1,1.0,0.0,1.1,0.9,1.1,0.9",0.0,1.0,1
1,138.0,422,1,1.1,0.9,1.1,0.9,1,"422,'            ',138.0,1,1,1,1,1.0,0.0,1.1,0.9,1.1,0.9",0.0,1.0,1
1,138.0,423,1,1.1,0.9,1.1,0.9,1,"423,'            ',138.0,1,1,1,1,1.0,0.0,1.1,0.9,1.1,0.9",0.0,1.0,1
1,138.0,424,1,1.1,0.9,1.1,0.9,1,"424,'            ',138.0,1,1,1,1,1.0,0.0,1.1,0.9,1.1,0.9",0.0,1.0,1
1,345.0,425,1,1.1,0.9,1.1,0.9,1,"425,'            ',345.0,1,1,1,1,1.0,0.0,1.1,0.9,1.1,0.9",0.0,1.0,1
1,138.0,426,1,1.1,0.9,1.1,0.9,1,"426,'            ',138.0,1,1,1,1,1.0,0.0,1.1,0.9,1.1,0.9",0.0,1.0,1
1,138.0,427,1,1.1,0.9,1.1,0.9,1,"427,'            ',138.0,1,1,1,1,1.0,0.0,1.1,0.9,1.1,0.9",0.0,1.0,1
1,345.0,428,1,1.1,0.9,1.1,0.9,1,"428,'            ',345.0,1,1,1,1,1.0,0.0,1.1,0.9,1.1,0.9",0.0,1.0,1
1,138.0,429,1,1.1,0.9,1.1,0.9,1,"429,'            ',138.0,1,1,1,1,1.0,0.0,1.1,0.9,1.1,0.9",0.0,1.0,1
1,13.8,430,2,1.1,0.9,1.1,0.9,1,"430,'            ',13.8,2,1,1,1,1.0,0.0,1.1,0.9,1.1,0.9",0.0,1.0,1
1,13.8,431,2,1.1,0.9,1.1,0.9,1,"431,'            ',13.8,2,1,1,1,1.0,0.0,1.1,0.9,1.1,0.9",0.0,1.0,1
1,13.8,432,2,1.1,0.9,1.1,0.9,1,"432,'            ',13.8,2,1,1,1,1.0,0.0,1.1,0.9,1.1,0.9",0.0,1.0,1
1,13.8,433,2,1.1,0.9,1.1,0.9,1,"433,'            ',13.8,2,1,1,1,1.0,0.0,1.1,0.9,1.1,0.9",0.0,1.0,1
1,13.8,434,2,1.1,0.9,1.1,0.9,1,"434,'            ',13.8,2,1,1,1,1.0,0.0,1.1,0.9,1.1,0.9",0.0,1.0,1
1,13.8,435,2,1.1,0.9,1.1,0.9,1,"435,'            ',13.8,2,1,1,1,1.0,0.0,1.1,0.9,1.1,0.9",0.0,1.0,1
1,13.8,436,2,1.1,0.9,1.1,0.9,1,"436,'            ',13.8,2,1,1,1,1.0,0.0,1.1,0.9,1.1,0.9",0.0,1.0,1
1,13.8,437,2,1.1,0.9,1.1,0.9,1,"437,'            ',13.8,2,1,1,1,1.0,0.0,1.1,0.9,1.1,0.9",0.0,1.0,1
1,13.8,438,2,1.1,0.9,1.1,0.9,1,"438,'            ',13.8,2,1,1,1,1.0,0.0,1.1,0.9,1.1,0.9",0.0,1.0,1
1,13.8,439,2,1.1,0.9,1.1,0.9,1,"439,'            ',13.8,2,1,1,1,1.0,0.0,1.1,0.9,1.1,0.9",0.0,1.0,1
1,345.0,440,1,1.1,0.9,1.1,0.9,1,"440,'            ',345.0,1,1,1,1,1.0,0.0,1.1,0.9,1.1,0.9",0.0,1.0,1
1,138.0,441,1,1.1,0.9,1.1,0.9,1,"441,'            ',138.0,1,1,1,1,1.0,0.0,1.1,0.9,1.1,0.9",0.0,1.0,1
1,13.8,442,2,1.1,0.9,1.1,0.9,1,"442,'            ',13.8,2,1,1,1,1.0,0.0,1.1,0.9,1.1,0.9",0.0,1.0,1
1,13.8,443,2,1.1,0.9,1.1,0.9,1,"443,'            ',13.8,2,1,1,1,1.0,0.0,1.1,0.9,1.1,0.9",0.0,1.0,1
1,13.8,444,2,1.1,0.9,1.1,0.9,1,"444,'            ',13.8,2,1,1,1,1.0,0.0,1.1,0.9,1.1,0.9",0.0,1.0,1
1,138.0,445,1,1.1,0.9,1.1,0.9,1,"445,'            ',138.0,1,1,1,1,1.0,0.0,1.1,0.9,1.1,0.9",0.0,1.0,1
1,138.0,446,1,1.1,0.9,1.1,0.9,1,"446,'            ',138.0,1,1,1,1,1.0,0.0,1.1,0.9,1.1,0.9",0.0,1.0,1
1,138.0,447,1,1.1,0.9,1.1,0.9,1,"447,'            ',138.0,1,1,1,1,1.0,0.0,1.1,0.9,1.1,0.9",0.0,1.0,1
1,138.0,448,1,1.1,0.9,1.1,0.9,1,"448,'            ',138.0,1,1,1,1,1.0,0.0,1.1,0.9,1.1,0.9",0.0,1.0,1
1,138.0,449,1,1.1,0.9,1.1,0.9,1,"449,'            ',138.0,1,1,1,1,1.0,0.0,1.1,0.9,1.1,0.9",0.0,1.0,1
1,138.0,450,1,1.1,0.9,1.1,0.9,1,"450,'            ',138.0,1,1,1,1,1.0,0.0,1.1,0.9,1.1,0.9",0.0,1.0,1
1,138.0,451,1,1.1,0.9,1.1,0.9,1,"451,'            ',138.0,1,1,1,1,1.0,0.0,1.1,0.9,1.1,0.9",0.0,1.0,1
1,138.0,452,1,1.1,0.9,1.1,0.9,1,"452,'            ',138.0,1,1,1,1,1.0,0.0,1.1,0.9,1.1,0.9",0.0,1.0,1
1,345.0,453,1,1.1,0.9,1.1,0.9,1,"453,'            ',345.0,1,1,1,1,1.0,0.0,1.1,0.9,1.1,0.9",0.0,1.0,1
1,138.0,454,1,1.1,0.9,1.1,0.9,1,"454,'            ',138.0,1,1,1,1,1.0,0.0,1.1,0.9,1.1,0.9",0.0,1.0,1
1,13.8,455,2,1.1,0.9,1.1,0.9,1,"455,'            ',13.8,2,1,1,1,1.0,0.0,1.1,0.9,1.1,0.9",0.0,1.0,1
1,13.8,456,2,1.1,0.9,1.1,0.9,1,"456,'            ',13.8,2,1,1,1,1.0,0.0,1.1,0.9,1.1,0.9",0.0,1.0,1
1,138.0,457,1,1.1,0.9,1.1,0.9,1,"457,'            ',138.0,1,1,1,1,1.0,0.0,1.1,0.9,1.1,0.9",0.0,1.0,1
1,13.8,458,2,1.1,0.9,1.1,0.9,1,"458,'            ',13.8,2,1,1,1,1.0,0.0,1.1,0.9,1.1,0.9",0.0,1.0,1
1,138.0,459,1,1.1,0.9,1.1,0.9,1,"459,'            ',138.0,1,1,1,1,1.0,0.0,1.1,0.9,1.1,0.9",0.0,1.0,1
1,138.0,460,1,1.1,0.9,1.1,0.9,1,"460,'            ',138.0,1,1,1,1,1.0,0.0,1.1,0.9,1.1,0.9",0.0,1.0,1
1,138.0,461,1,1.1,0.9,1.1,0.9,1,"461,'            ',138.0,1,1,1,1,1.0,0.0,1.1,0.9,1.1,0.9",0.0,1.0,1
1,138.0,462,1,1.1,0.9,1.1,0.9,1,"462,'            ',138.0,1,1,1,1,1.0,0.0,1.1,0.9,1.1,0.9",0.0,1.0,1
1,13.8,463,2,1.1,0.9,1.1,0.9,1,"463,'            ',13.8,2,1,1,1,1.0,0.0,1.1,0.9,1.1,0.9",0.0,1.0,1
1,345.0,464,1,1.1,0.9,1.1,0.9,1,"464,'            ',345.0,1,1,1,1,1.0,0.0,1.1,0.9,1.1,0.9",0.0,1.0,1
1,138.0,465,1,1.1,0.9,1.1,0.9,1,"465,'            ',138.0,1,1,1,1,1.0,0.0,1.1,0.9,1.1,0.9",0.0,1.0,1
1,138.0,466,1,1.1,0.9,1.1,0.9,1,"466,'            ',138.0,1,1,1,1,1.0,0.0,1.1,0.9,1.1,0.9",0.0,1.0,1
1,138.0,467,1,1.1,0.9,1.1,0.9,1,"467,'            ',138.0,1,1,1,1,1.0,0.0,1.1,0.9,1.1,0.9",0.0,1.0,1
1,138.0,468,1,1.1,0.9,1.1,0.9,1,"468,'            ',138.0,1,1,1,1,1.0,0.0,1.1,0.9,1.1,0.9",0.0,1.0,1
1,138.0,469,1,1.1,0.9,1.1,0.9,1,"469,'            ',138.0,1,1,1,1,1.0,0.0,1.1,0.9,1.1,0.9",0.0,1.0,1
1,138.0,470,1,1.1,0.9,1.1,0.9,1,"470,'            ',138.0,1,1,1,1,1.0,0.0,1.1,0.9,1.1,0.9",0.0,1.0,1
1,345.0,471,1,1.1,0.9,1.1,0.9,1,"471,'            ',345.0,1,1,1,1,1.0,0.0,1.1,0.9,1.1,0.9",0.0,1.0,1
1,138.0,472,1,1.1,0.9,1.1,0.9,1,"472,'            ',138.0,1,1,1,1,1.0,0.0,1.1,0.9,1.1,0.9",0.0,1.0,1
1,138.0,473,1,1.1,0.9,1.1,0.9,1,"473,'            ',138.0,1,1,1,1,1.0,0.0,1.1,0.9,1.1,0.9",0.0,1.0,1
1,138.0,474,1,1.1,0.9,1.1,0.9,1,"474,'            ',138.0,1,1,1,1,1.0,0.0,1.1,0.9,1.1,0.9",0.0,1.0,1
1,138.0,475,1,1.1,0.9,1.1,0.9,1,"475,'            ',138.0,1,1,1,1,1.0,0.0,1.1,0.9,1.1,0.9",0.0,1.0,1
1,138.0,476,1,1.1,0.9,1.1,0.9,1,"476,'            ',138.0,1,1,1,1,1.0,0.0,1.1,0.9,1.1,0.9",0.0,1.0,1
1,138.0,477,1,1.1,0.9,1.1,0.9,1,"477,'            ',138.0,1,1,1,1,1.0,0.0,1.1,0.9,1.1,0.9",0.0,1.0,1
1,138.0,478,1,1.1,0.9,1.1,0.9,1,"478,'            ',138.0,1,1,1,1,1.0,0.0,1.1,0.9,1.1,0.9",0.0,1.0,1
1,138.0,479,1,1.1,0.9,1.1,0.9,1,"479,'            ',138.0,1,1,1,1,1.0,0.0,1.1,0.9,1.1,0.9",0.0,1.0,1
1,13.8,480,2,1.1,0.9,1.1,0.9,1,"480,'            ',13.8,2,1,1,1,1.0,0.0,1.1,0.9,1.1,0.9",0.0,1.0,1
1,13.8,481,2,1.1,0.9,1.1,0.9,1,"481,'            ',13.8,2,1,1,1,1.0,0.0,1.1,0.9,1.1,0.9",0.0,1.0,1
1,13.8,482,2,1.1,0.9,1.1,0.9,1,"482,'            ',13.8,2,1,1,1,1.0,0.0,1.1,0.9,1.1,0.9",0.0,1.0,1
1,13.8,483,2,1.1,0.9,1.1,0.9,1,"483,'            ',13.8,2,1,1,1,1.0,0.0,1.1,0.9,1.1,0.9",0.0,1.0,1
1,13.8,484,2,1.1,0.9,1.1,0.9,1,"484,'            ',13.8,2,1,1,1,1.0,0.0,1.1,0.9,1.1,0.9",0.0,1.0,1
1,138.0,485,1,1.1,0.9,1.1,0.9,1,"485,'            ',138.0,1,1,1,1,1.0,0.0,1.1,0.9,1.1,0.9",0.0,1.0,1
1,138.0,486,1,1.1,0.9,1.1,0.9,1,"486,'            ',138.0,1,1,1,1,1.0,0.0,1.1,0.9,1.1,0.9",0.0,1.0,1
1,138.0,487,1,1.1,0.9,1.1,0.9,1,"487,'            ',138.0,1,1,1,1,1.0,0.0,1.1,0.9,1.1,0.9",0.0,1.0,1
1,138.0,488,1,1.1,0.9,1.1,0.9,1,"488,'            ',138.0,1,1,1,1,1.0,0.0,1.1,0.9,1.1,0.9",0.0,1.0,1
1,138.0,489,1,1.1,0.9,1.1,0.9,1,"489,'            ',138.0,1,1,1,1,1.0,0.0,1.1,0.9,1.1,0.9",0.0,1.0,1
1,138.0,490,1,1.1,0.9,1.1,0.9,1,"490,'            ',138.0,1,1,1,1,1.0,0.0,1.1,0.9,1.1,0.9",0.0,1.0,1
1,138.0,491,1,1.1,0.9,1.1,0.9,1,"491,'            ',138.0,1,1,1,1,1.0,0.0,1.1,0.9,1.1,0.9",0.0,1.0,1
1,138.0,492,1,1.1,0.9,1.1,0.9,1,"492,'            ',138.0,1,1,1,1,1.0,0.0,1.1,0.9,1.1,0.9",0.0,1.0,1
1,138.0,493,1,1.1,0.9,1.1,0.9,1,"493,'            ',138.0,1,1,1,1,1.0,0.0,1.1,0.9,1.1,0.9",0.0,1.0,1
1,13.8,494,2,1.1,0.9,1.1,0.9,1,"494,'            ',13.8,2,1,1,1,1.0,0.0,1.1,0.9,1.1,0.9",0.0,1.0,1
1,138.0,495,1,1.1,0.9,1.1,0.9,1,"495,'            ',138.0,1,1,1,1,1.0,0.0,1.1,0.9,1.1,0.9",0.0,1.0,1
1,138.0,496,1,1.1,0.9,1.1,0.9,1,"496,'            ',138.0,1,1,1,1,1.0,0.0,1.1,0.9,1.1,0.9",0.0,1.0,1
1,13.8,497,2,1.1,0.9,1.1,0.9,1,"497,'            ',13.8,2,1,1,1,1.0,0.0,1.1,0.9,1.1,0.9",0.0,1.0,1
1,13.8,498,2,1.1,0.9,1.1,0.9,1,"498,'            ',13.8,2,1,1,1,1.0,0.0,1.1,0.9,1.1,0.9",0.0,1.0,1
1,138.0,499,1,1.1,0.9,1.1,0.9,1,"499,'            ',138.0,1,1,1,1,1.0,0.0,1.1,0.9,1.1,0.9",0.0,1.0,1
1,138.0,500,1,1.1,0.9,1.1,0.9,1,"500,'            ',138.0,1,1,1,1,1.0,0.0,1.1,0.9,1.1,0.9",0.0,1.0,1
